Circuit: * C:\Users\sanbo\OneDrive - University of Florida\Documents\LTspiceXVII\MOSFET Schematic.asc

Direct Newton iteration for .op point succeeded.

Date: Wed Jan 12 15:55:57 2022
Total elapsed time: 0.053 seconds.

tnom = 27
temp = 27
method = modified trap
totiter = 2094
traniter = 2088
tranpoints = 1045
accept = 1045
rejected = 0
matrix size = 20
fillins = 0
solver = Normal
Matrix Compiler1: 916 bytes object code size  0.1/0.1/[0.1]
Matrix Compiler2: 1.44 KB object code size  0.1/0.1/[0.1]

