Circuit: * C:\Users\sanbo\OneDrive - University of Florida\Documents\LTspiceXVII\MOSFET Schematic.asc

Direct Newton iteration for .op point succeeded.

Date: Fri Feb 18 14:18:19 2022
Total elapsed time: 0.077 seconds.

tnom = 27
temp = 27
method = modified trap
totiter = 2094
traniter = 2088
tranpoints = 1045
accept = 1045
rejected = 0
matrix size = 24
fillins = 0
solver = Normal
Matrix Compiler1: 990 bytes object code size  0.2/0.1/[0.1]
Matrix Compiler2: 1.66 KB object code size  0.1/0.2/[0.1]

